@<TRIPOS>MOLECULE
FWD
   23    23     1     0     0
SMALL
No Charge or Current Charge


@<TRIPOS>ATOM
      1 N1          20.6200    61.7740    28.7660 N.am       1 FWD      -0.469100
      2 C2          21.1390    61.6000    27.4630 C.2        1 FWD       0.690000
      3 O2          20.4630    61.5270    26.4690 O.2        1 FWD      -0.570000
      4 N3          22.5480    61.5090    27.4200 N.am       1 FWD      -0.490000
      5 C4          23.4370    61.5780    28.4750 C.2        1 FWD       0.615600
      6 O4          24.6420    61.4710    28.3450 O.2        1 FWD      -0.570000
      7 C5          22.7720    61.7620    29.8090 C.2        1 FWD       0.163900
      8 F5          23.5570    61.8630    30.9020 F          1 FWD      -0.149500
      9 C6          21.4210    61.8750    29.8600 C.2        1 FWD      -0.041000
     10 C7          19.1740    61.9480    28.9370 C.3        1 FWD       0.300100
     11 C8          18.6210    63.2550    28.3840 C.3        1 FWD       0.397000
     12 N8          18.9270    64.3890    29.3200 N.4        1 FWD      -0.853000
     13 C9          17.1310    63.2100    28.0560 C.2        1 FWD       0.906000
     14 O91         16.4070    64.0560    28.5290 O.co2      1 FWD      -0.900000
     15 O92         16.7790    62.2140    27.3260 O.co2      1 FWD      -0.900000
     16 H1          22.9510    61.3790    26.5140 H          1 FWD       0.370000
     17 H2          20.9540    62.0560    30.8270 H          1 FWD       0.150000
     18 H3          18.9490    61.9090    30.0130 H          1 FWD       0.000000
     19 H4          18.6660    61.1170    28.4250 H          1 FWD       0.000000
     20 H5          19.1490    63.4520    27.4400 H          1 FWD       0.000000
     21 H6          18.5560    65.2460    28.9420 H          1 FWD       0.450000
     22 H7          19.9250    64.4750    29.4290 H          1 FWD       0.450000
     23 H8          18.5050    64.2070    30.2170 H          1 FWD       0.450000
@<TRIPOS>BOND
     1     1     2 am  
     2     1     9 1   
     3     1    10 1   
     4     2     3 2   
     5     2     4 am  
     6     4     5 am  
     7     5     6 2   
     8     5     7 1   
     9     7     8 1   
    10     7     9 2   
    11    10    11 1   
    12    11    12 1   
    13    11    13 1   
    14    13    14 1   
    15    13    15 1   
    16     4    16 1   
    17     9    17 1   
    18    10    18 1   
    19    10    19 1   
    20    11    20 1   
    21    12    21 1   
    22    12    22 1   
    23    12    23 1   
@<TRIPOS>SUBSTRUCTURE
     1 FWD         1 TEMP              0 ****  ****    0 ROOT
